data/irish_network/mp_converted/SummerPeak2022_mp_converted.m
function mpc = SummerPeak2022_mp_converted
%SUMMERPEAK2022_MP_CONVERTED

%% MATPOWER Case Format : Version 2
mpc.version = '2';

%%-----  Power Flow Data  -----%%
%% system MVA base
mpc.baseMVA = 100;

%% bus data
%	bus_i	type	Pd	Qd	Gs	Bs	area	Vm	Va	baseKV	zone	Vmax	Vmin
mpc.bus = [
	10	1	47.72	32.79	0	0	2	1.06402	0	38	1	1.1	0.9;
	11	1	31.98	22.71	0	0	2	1.04988	0	38	1	1.1	0.9;
	12	1	5.41	1.78	0	0	1	1.05485	0	38	1	1.1	0.9;
	13	1	9.09	3.12	0	0	1	1.06992	0	38	1	1.1	0.9;
	14	1	45.04	14.81	0	0	2	1.04462	0	38	1	1.1	0.9;
	15	1	47.28	15.57	0	0	2	1.06019	0	38	1	1.1	0.9;
	1021	1	0	0	0	0	4	1.04313	0	110	1	1.1	0.9;
	1041	1	1.43	0.07	0	0	3	1.04147	0	110	1	1.1	0.9;
	1042	1	0	0	0	0	3	1.05	0	220	1	1.1	0.9;
	1052	1	0	0	0	0	3	1.04904	0	220	1	1.1	0.9;
	1061	1	0	0	0	0	9	1.05534	0	110	1	1.1	0.9;
	1062	1	0	0	0	0	3	1.05	0	220	1	1.1	0.9;
	1071	1	0	0	0	0	4	1.05999	0	110	1	1.1	0.9;
	1072	1	0	0	0	0	3	1.04994	0	220	1	1.1	0.9;
	1081	1	0	0	0	0	7	1.04349	0	110	1	1.1	0.9;
	1091	1	0	0	0	0	1	1.04429	0	110	1	1.1	0.9;
	1101	1	16.62	4.98	0	0	5	1.04715	0	110	1	1.1	0.9;
	1121	1	0	0	0	0	6	1.06109	0	110	1	1.1	0.9;
	1122	1	0	0	0	0	6	1.05958	0	220	1	1.1	0.9;
	1131	1	0	0	0	0	7	1.04991	0	110	1	1.1	0.9;
	1141	1	0	0	0	0	9	1.05522	0	110	1	1.1	0.9;
	1151	1	0	0	0	0	7	1.04991	0	110	1	1.1	0.9;
	1161	1	0	0	0	0	7	1.05	0	110	1	1.1	0.9;
	1181	1	0	0	0	0	10	1.04684	0	110	1	1.1	0.9;
	1201	1	0	0	0	0	1	1.05557	0	110	1	1.1	0.9;
	1211	1	0	0	0	0	3	1.04842	0	110	1	1.1	0.9;
	1212	1	0	0	0	0	3	1.05536	0	220	1	1.1	0.9;
	1221	1	0	0	0	0	8	1.05805	0	110	1	1.1	0.9;
	1231	1	0	0	0	0	6	1.05159	0	110	1	1.1	0.9;
	1251	1	0	0	0	0	4	1.05556	0	110	1	1.1	0.9;
	1271	1	0	0	0	0	10	1.04869	0	110	1	1.1	0.9;
	1281	1	0	0	0	0	3	1.03837	0	110	1	1.1	0.9;
	1301	1	0	0	0	0	6	1.05945	0	110	1	1.1	0.9;
	1311	1	0	0	0	0	3	1.0525	0	110	1	1.1	0.9;
	1321	1	0	0	0	0	8	1.05621	0	110	1	1.1	0.9;
	1341	1	0	0	0	0	9	1.03823	0	110	1	1.1	0.9;
	1351	1	0	0	0	0	8	1.05543	0	110	1	1.1	0.9;
	1361	1	0	0	0	0	5	1.04121	0	110	1	1.1	0.9;
	1381	1	0	0	0	0	3	1.03569	0	110	1	1.1	0.9;
	1391	1	0	0	0	0	3	1.03506	0	110	1	1.1	0.9;
	1400	1	0	0	0	0	9	1.04442	0	110	1	1.1	0.9;
	1401	1	0	0	0	0	9	1.04186	0	110	1	1.1	0.9;
	1404	1	0	0	0	0	9	1.04454	0	380	1	1.1	0.9;
	1421	1	0	0	0	0	1	1.05616	0	110	1	1.1	0.9;
	1431	1	0	0	0	0	6	1.04859	0	110	1	1.1	0.9;
	1441	1	0	0	0	0	3	1.02424	0	110	1	1.1	0.9;
	1451	1	0	0	0	0	1	1.0559	0	110	1	1.1	0.9;
	1461	1	0	0	0	0	5	1.04134	0	110	1	1.1	0.9;
	1471	1	0	0	0	0	1	1.06959	0	110	1	1.1	0.9;
	1472	1	0	0	0	0	1	1.07562	0	220	1	1.1	0.9;
	1481	1	0	0	0	0	5	1.03858	0	110	1	1.1	0.9;
	1492	1	0	0	0	0	10	1.04539	0	220	1	1.1	0.9;
	1501	1	0	0	0	0	3	1.02403	0	110	1	1.1	0.9;
	1511	1	0	0	0	0	7	1.05	0	110	1	1.1	0.9;
	1541	1	0	0	0	0	6	1.05173	0	110	1	1.1	0.9;
	1551	1	0	0	0	0	3	1.05	0	110	1	1.1	0.9;
	1571	1	0	0	0	0	9	1.01892	0	110	1	1.1	0.9;
	1581	1	0	0	0	0	1	1.05497	0	110	1	1.1	0.9;
	1601	1	0	0	0	0	3	1.03958	0	110	1	1.1	0.9;
	1602	1	0	0	0	0	3	1.05129	0	220	1	1.1	0.9;
	1611	1	0	0	0	0	7	1.03536	0	110	1	1.1	0.9;
	1621	1	0	0	0	0	3	1.03095	0	110	1	1.1	0.9;
	1631	1	0	0	0	0	9	1.05781	0	110	1	1.1	0.9;
	1641	1	0	0	0	0	9	1.0664	0	110	1	1.1	0.9;
	1642	1	0	0	0	0	9	1.06824	0	220	1	1.1	0.9;
	1651	1	0	0	0	0	7	1.05228	0	110	1	1.1	0.9;
	1661	1	0	0	0	0	9	1.05	0	110	1	1.1	0.9;
	1681	1	0	0	0	0	3	1.03545	0	110	1	1.1	0.9;
	1691	1	0	0	0	0	1	1.05673	0	110	1	1.1	0.9;
	1701	1	0	0	0	0	9	1.0528	0	110	1	1.1	0.9;
	1711	1	0	0	0	0	1	1.06865	0	110	1	1.1	0.9;
	1721	1	0	0	0	0	5	1.05645	0	110	1	1.1	0.9;
	1731	1	0	0	0	0	1	1.06865	0	110	1	1.1	0.9;
	1741	1	0	0	0	0	2	1.05691	0	110	1	1.1	0.9;
	1742	1	0	0	0	0	2	1.06901	0	220	1	1.1	0.9;
	1761	1	0	0	0	0	9	1.05281	0	110	1	1.1	0.9;
	1781	1	0	0	0	0	7	1.0496	0	110	1	1.1	0.9;
	1791	1	0	0	0	0	8	1.05442	0	110	1	1.1	0.9;
	1801	1	0	0	0	0	1	1.06191	0	110	1	1.1	0.9;
	1821	1	0	0	0	0	9	1.05449	0	110	1	1.1	0.9;
	1831	1	0	0	0	0	9	1.04952	0	110	1	1.1	0.9;
	1841	1	0	0	0	0	6	1.05032	0	110	1	1.1	0.9;
	1851	1	0	0	0	0	2	1.054	0	110	1	1.1	0.9;
	1861	1	0	0	0	0	9	1.05698	0	110	1	1.1	0.9;
	1871	1	0	0	0	0	2	1.05811	0	110	1	1.1	0.9;
	1881	1	0	0	0	0	3	1.02242	0	110	1	1.1	0.9;
	1891	1	0	0	0	0	10	1.03998	0	110	1	1.1	0.9;
	1901	1	0	0	0	0	6	1.06368	0	110	1	1.1	0.9;
	1911	1	0	0	0	0	9	1.05526	0	110	1	1.1	0.9;
	1921	1	0	0	0	0	3	1.03529	0	110	1	1.1	0.9;
	1931	1	0	0	0	0	9	1.05389	0	110	1	1.1	0.9;
	1941	1	0	0	0	0	8	1.075	0	110	1	1.1	0.9;
	1951	1	0	0	0	0	9	1.03622	0	110	1	1.1	0.9;
	1961	1	0	0	0	0	3	1.03417	0	110	1	1.1	0.9;
	1971	1	0	0	0	0	7	1.05	0	110	1	1.1	0.9;
	1981	1	0	0	0	0	9	1.04851	0	110	1	1.1	0.9;
	1991	1	0	0	0	0	6	1.05209	0	110	1	1.1	0.9;
	2001	1	0	0	0	0	5	1.04321	0	110	1	1.1	0.9;
	2002	1	0	0	0	0	5	1.0489	0	220	1	1.1	0.9;
	2011	1	0	0	0	0	3	1.03545	0	110	1	1.1	0.9;
	2021	1	0	0	0	0	1	1.04372	0	110	1	1.1	0.9;
	2041	1	0	0	0	0	2	1.05866	0	110	1	1.1	0.9;
	2042	1	0	0	0	0	2	1.075	0	220	1	1.1	0.9;
	2051	1	0	0	0	0	3	1.02944	0	110	1	1.1	0.9;
	2052	1	0	0	0	0	2	1.075	0	220	1	1.1	0.9;
	2081	4	0	0	0	0	3	1	0	110	1	1.1	0.9;
	2090	1	0	0	0	0	9	1.05417	0	110	1	1.1	0.9;
	2091	1	0	0	0	0	9	1.05689	0	110	1	1.1	0.9;
	2101	1	0	0	0	0	10	1.04475	0	110	1	1.1	0.9;
	2111	1	0	0	0	0	9	1.05	0	110	1	1.1	0.9;
	2121	1	0	0	0	0	4	1.0416	0	110	1	1.1	0.9;
	2131	1	0	0	0	0	3	1.05	0	110	1	1.1	0.9;
	2141	1	0	0	0	0	5	1.03202	0	110	1	1.1	0.9;
	2161	1	0	0	0	0	5	1.04797	0	110	1	1.1	0.9;
	2181	1	0	0	0	0	10	1.03976	0	110	1	1.1	0.9;
	2202	1	0	0	0	0	2	1.07778	0	220	1	1.1	0.9;
	2204	1	0	0	0	0	2	1.06222	0	380	1	1.1	0.9;
	2221	1	0	0	0	0	3	1.03341	0	110	1	1.1	0.9;
	2231	1	0	0	0	0	4	1.06055	0	110	1	1.1	0.9;
	2241	1	0	0	0	0	5	1.06427	0	110	1	1.1	0.9;
	2251	1	0	0	0	0	1	1.06866	0	110	1	1.1	0.9;
	2261	1	0	0	0	0	8	1.05031	0	110	1	1.1	0.9;
	2281	1	0	0	0	0	9	1.04839	0	110	1	1.1	0.9;
	2301	1	0	0	0	0	8	1.05182	0	110	1	1.1	0.9;
	2321	1	0	0	0	0	9	1.04584	0	110	1	1.1	0.9;
	2361	1	0	0	0	0	4	1.04578	0	110	1	1.1	0.9;
	2391	1	0	0	0	0	5	1.05833	0	110	1	1.1	0.9;
	2401	1	0	0	0	0	8	1.05785	0	110	1	1.1	0.9;
	2411	1	0	0	0	0	6	1.0396	0	110	1	1.1	0.9;
	2481	1	0	0	0	0	2	1.05665	0	110	1	1.1	0.9;
	2491	1	0	0	0	0	2	1.0569	0	110	1	1.1	0.9;
	2521	1	0	0	0	0	9	1.05855	0	110	1	1.1	0.9;
	2522	1	0	0	0	0	9	1.07347	0	220	1	1.1	0.9;
	2524	1	0	0	0	0	9	1.03494	0	380	1	1.1	0.9;
	2541	1	0	0	0	0	1	1.07279	0	110	1	1.1	0.9;
	2551	1	0	0	0	0	1	1.06851	0	110	1	1.1	0.9;
	2561	1	0	0	0	0	2	1.05727	0	110	1	1.1	0.9;
	2562	1	0	0	0	0	2	1.075	0	220	1	1.1	0.9;
	2563	1	0	0	0	0	2	1.075	0	220	1	1.1	0.9;
	2571	1	0	0	0	0	2	1.06833	0	110	1	1.1	0.9;
	2581	1	0	0	0	0	2	1.05733	0	110	1	1.1	0.9;
	2671	1	0	0	0	0	9	1.05765	0	110	1	1.1	0.9;
	2681	1	0	0	0	0	9	1.06055	0	110	1	1.1	0.9;
	2701	1	0	0	0	0	1	1.05011	0	110	1	1.1	0.9;
	2721	1	0	0	0	0	2	1.06122	0	110	1	1.1	0.9;
	2731	1	0	0	0	0	7	1.05005	0	110	1	1.1	0.9;
	2741	1	0	0	0	0	6	1.04428	0	110	1	1.1	0.9;
	2742	1	0	0	0	0	6	1.05	0	220	1	1.1	0.9;
	2744	1	0	0	0	0	6	1.06693	0	380	1	1.1	0.9;
	2761	1	0	0	0	0	1	1.0684	0	110	1	1.1	0.9;
	2771	1	0	0	0	0	7	1.04837	0	110	1	1.1	0.9;
	2780	1	0	0	0	0	9	1.05973	0	110	1	1.1	0.9;
	2781	1	0	0	0	0	9	1.05973	0	110	1	1.1	0.9;
	2801	1	0	0	0	0	9	1.04823	0	110	1	1.1	0.9;
	2821	1	0	0	0	0	9	1.04692	0	110	1	1.1	0.9;
	2841	1	0	0	0	0	10	1.03928	0	110	1	1.1	0.9;
	2842	1	0	0	0	0	10	1.05202	0	220	1	1.1	0.9;
	2852	1	0	0	0	0	3	1.04882	0	220	1	1.1	0.9;
	2861	1	0	0	0	0	1	1.04449	0	110	1	1.1	0.9;
	2870	1	0	0	0	0	9	1.04963	0	110	1	1.1	0.9;
	2871	1	0	0	0	0	9	1.04963	0	110	1	1.1	0.9;
	2881	1	0	0	0	0	3	1.01612	0	110	1	1.1	0.9;
	2941	1	0	0	0	0	1	1.07309	0	110	1	1.1	0.9;
	2951	1	0	0	0	0	1	1.06873	0	110	1	1.1	0.9;
	2962	1	0	0	0	0	2	1.07497	0	220	1	1.1	0.9;
	2972	1	0	0	0	0	2	1.0753	0	220	1	1.1	0.9;
	2981	1	0	0	0	0	3	1.03476	0	110	1	1.1	0.9;
	3061	1	0	0	0	0	3	1.03162	0	110	1	1.1	0.9;
	3081	1	0	0	0	0	2	1.06911	0	110	1	1.1	0.9;
	3082	1	0	0	0	0	2	1.07504	0	220	1	1.1	0.9;
	3091	1	0	0	0	0	2	1.04956	0	110	1	1.1	0.9;
	3101	1	0	0	0	0	5	1.05181	0	110	1	1.1	0.9;
	3122	1	0	0	0	0	2	1.075	0	220	1	1.1	0.9;
	3190	1	0	0	0	0	7	1.05206	0	110	1	1.1	0.9;
	3191	1	0	0	0	0	7	1.05317	0	110	1	1.1	0.9;
	3192	1	0	0	0	0	7	1.07018	0	220	1	1.1	0.9;
	3194	1	0	0	0	0	7	1.07435	0	380	1	1.1	0.9;
	3200	1	0	0	0	0	3	1.05064	0	110	1	1.1	0.9;
	3201	1	0	0	0	0	3	1.03941	0	110	1	1.1	0.9;
	3202	1	0	0	0	0	3	1.05064	0	220	1	1.1	0.9;
	3203	1	0	0	0	0	3	1.05064	0	220	1	1.1	0.9;
	3204	1	0	0	0	0	3	1.06259	0	380	1	1.1	0.9;
	3209	1	0	0	0	0	3	1.03941	0	110	1	1.1	0.9;
	3211	1	0	0	0	0	4	1.06008	0	110	1	1.1	0.9;
	3221	1	0	0	0	0	3	1.02948	0	110	1	1.1	0.9;
	3241	1	0	0	0	0	8	1.06163	0	110	1	1.1	0.9;
	3251	1	0	0	0	0	7	1.05247	0	110	1	1.1	0.9;
	3261	1	0	0	0	0	6	1.04893	0	110	1	1.1	0.9;
	3281	1	0	0	0	0	7	1.04381	0	110	1	1.1	0.9;
	3282	1	0	0	0	0	7	1.05596	0	220	1	1.1	0.9;
	3301	1	0	0	0	0	7	1.03196	0	110	1	1.1	0.9;
	3321	1	0	0	0	0	10	1.03068	0	110	1	1.1	0.9;
	3330	1	0	0	0	0	3	1.05138	0	110	1	1.1	0.9;
	3331	1	0	0	0	0	3	1.05138	0	110	1	1.1	0.9;
	3332	1	0	0	0	0	3	1.0589	0	220	1	1.1	0.9;
	3341	1	0	0	0	0	6	1.06791	0	110	1	1.1	0.9;
	3342	1	0	0	0	0	6	1.05489	0	220	1	1.1	0.9;
	3361	1	0	0	0	0	9	1.04101	0	110	1	1.1	0.9;
	3381	1	0	0	0	0	8	1.04818	0	110	1	1.1	0.9;
	3391	1	0	0	0	0	3	1.05	0	110	1	1.1	0.9;
...
];

%% generator data
%	bus	Pg	Qg	Qmax	Qmin	Vg	mBase	status	Pmax	Pmin	Pc1	Pc2	Qc1min	Qc1max	Qc2min	Qc2max	ramp_agc	ramp_10	ramp_30	ramp_q	apf	mu_Pmax	mu_Pmin	mu_Qmax	mu_Qmin
mpc.gen = [
	10271	21	0	15	-7	1.05	34	0	21	5	0	0	0	0	0	0	0	0	0	0	0	0.0000	0.0000	0.0000	0.0000;
	10272	22	0	15	-7	1.05	34	0	22	5	0	0	0	0	0	0	0	0	0	0	0	0.0000	0.0000	0.0000	0.0000;
	10273	19	0	15	-7	1.05	34	0	19	5	0	0	0	0	0	0	0	0	0	0	0	0.0000	0.0000	0.0000	0.0000;
	10274	24	0	15	-7	1.05	34	0	24	5	0	0	0	0	0	0	0	0	0	0	0	0.0000	0.0000	0.0000	0.0000;
	10275	2.25	0	0	0	1.05	8.35	1	7.5	0	0	0	0	0	0	0	0	0	0	0	0	0.0000	0.0000	0.0000	0.0000;
	10276	0.198	0	0	0	1.05	0.85	1	0.66	0	0	0	0	0	0	0	0	0	0	0	0	0.0000	0.0000	0.0000	0.0000;
	10470	443	0	270	-170	1.075	500	0	443	222	0	0	0	0	0	0	0	0	0	0	0	0.0000	0.0000	0.0000	0.0000;
	10471	270	0	159	-75	1.075	318.8	0	270	40	0	0	0	0	0	0	0	0	0	0	0	0.0000	0.0000	0.0000	0.0000;
	10472	90	0	60	-30	1.075	100.9	0	90	13	0	0	0	0	0	0	0	0	0	0	0	0.0000	0.0000	0.0000	0.0000;
	10473	90	0	60	-30	1.075	100.9	0	90	13	0	0	0	0	0	0	0	0	0	0	0	0.0000	0.0000	0.0000	0.0000;
	10474	90	0	60	-30	1.075	100.9	0	90	13	0	0	0	0	0	0	0	0	0	0	0	0.0000	0.0000	0.0000	0.0000;
	10671	1.44	-1.94	-1.94	-1.94	1.04	4.8	1	4.8	0	0	0	0	0	0	0	0	0	0	0	0	0.0000	0.0000	0.0000	0.0000;
	10672	1.5	-2	-2	-2	1.04	6	1	5	0	0	0	0	0	0	0	0	0	0	0	0	0.0000	0.0000	0.0000	0.0000;
	10673	0.36	-0.48	-0.48	-0.48	1.05	1.2	1	1.2	0	0	0	0	0	0	0	0	0	0	0	0	0.0000	0.0000	0.0000	0.0000;
	10674	1.38	-1.951	-1.77	-2.3	1.04	4.6	1	4.6	0	0	0	0	0	0	0	0	0	0	0	0	0.0000	0.0000	0.0000	0.0000;
	11204	1	0	0	0	1	1.6	0	1	0	0	0	0	0	0	0	0	0	0	0	0	0.0000	0.0000	0.0000	0.0000;
	11271	7.56	0	0	0	1.04	28	1	25.2	0	0	0	0	0	0	0	0	0	0	0	0	0.0000	0.0000	0.0000	0.0000;
	11370	6.6	-3.204	5.59	-5.59	1.05	30	1	22	0	0	0	0	0	0	0	0	0	0	0	0	0.0000	0.0000	0.0000	0.0000;
	11371	15.3	-11.243	20	-20	1.05	66	1	51	0	0	0	0	0	0	0	0	0	0	0	0	0.0000	0.0000	0.0000	0.0000;
	11374	1.2	-0.675	1.31	-1.31	1.05	4	1	4	0	0	0	0	0	0	0	0	0	0	0	0	0.0000	0.0000	0.0000	0.0000;
	11375	1.08	-0.618	1.18	-1.18	1.05	4	1	3.6	0	0	0	0	0	0	0	0	0	0	0	0	0.0000	0.0000	0.0000	0.0000;
	12371	9.45	-7	7	-7	1.05	32	1	31.5	0	0	0	0	0	0	0	0	0	0	0	0	0.0000	0.0000	0.0000	0.0000;
	12372	3.15	0	0	0	1.05	10	1	10.5	0	0	0	0	0	0	0	0	0	0	0	0	0.0000	0.0000	0.0000	0.0000;
	12571	5.835	0	0	0	1.05	25.05	1	19.45	0	0	0	0	0	0	0	0	0	0	0	0	0.0000	0.0000	0.0000	0.0000;
	12572	0.9	-0.99	0.99	-0.99	1.05	3.34	1	3	0	0	0	0	0	0	0	0	0	0	0	0	0.0000	0.0000	0.0000	0.0000;
	12573	2.7	-2.96	2.96	-2.96	1.05	10.02	1	9	0	0	0	0	0	0	0	0	0	0	0	0	0.0000	0.0000	0.0000	0.0000;
	12871	0.69	0	0	-0.66	1.05	2.3	1	2.3	0	0	0	0	0	0	0	0	0	0	0	0	0.0000	0.0000	0.0000	0.0000;
	12872	2.52	0	0	-2.76	1.05	9.2	1	8.4	0	0	0	0	0	0	0	0	0	0	0	0	0.0000	0.0000	0.0000	0.0000;
	12873	5.865	0	0	0	1.05	20.7	1	19.55	0	0	0	0	0	0	0	0	0	0	0	0	0.0000	0.0000	0.0000	0.0000;
	12874	2.55	0	0	0	1.05	8.5	1	8.5	0	0	0	0	0	0	0	0	0	0	0	0	0.0000	0.0000	0.0000	0.0000;
	13170	7.185	0	0	0	1.05	25.3	1	23.95	0	0	0	0	0	0	0	0	0	0	0	0	0.0000	0.0000	0.0000	0.0000;
	13171	3	0	0	0	1.05	10	1	10	0	0	0	0	0	0	0	0	0	0	0	0	0.0000	0.0000	0.0000	0.0000;
	13173	2.55	0	0	0	1.05	10.5	1	8.5	0	0	0	0	0	0	0	0	0	0	0	0	0.0000	0.0000	0.0000	0.0000;
	13174	10.755	0	0	0	1.05	36	1	35.85	0	0	0	0	0	0	0	0	0	0	0	0	0.0000	0.0000	0.0000	0.0000;
	13175	3.45	0	0	0	1.05	11.5	1	11.5	0	0	0	0	0	0	0	0	0	0	0	0	0.0000	0.0000	0.0000	0.0000;
	13176	5.4	0	0	0	1.05	18.75	1	18	0	0	0	0	0	0	0	0	0	0	0	0	0.0000	0.0000	0.0000	0.0000;
	13434	4.3	0	0	0	1	4.5	0	4.3	0	0	0	0	0	0	0	0	0	0	0	0	0.0000	0.0000	0.0000	0.0000;
	13471	0.198	0	0	0	1.05	0.66	1	0.66	0	0	0	0	0	0	0	0	0	0	0	0	0.0000	0.0000	0.0000	0.0000;
	13472	0.765	0	0	-0.84	1.05	2.7	1	2.55	0	0	0	0	0	0	0	0	0	0	0	0	0.0000	0.0000	0.0000	0.0000;
	13473	3	0	0	0	1.05	10	1	10	0	0	0	0	0	0	0	0	0	0	0	0	0.0000	0.0000	0.0000	0.0000;
	13474	1.8	0	0	0	1.05	6.25	1	6	0	0	0	0	0	0	0	0	0	0	0	0	0.0000	0.0000	0.0000	0.0000;
	13475	2.295	0	0	0	1.05	7.65	1	7.65	0	0	0	0	0	0	0	0	0	0	0	0	0.0000	0.0000	0.0000	0.0000;
	13476	3.57	0	0	0	1.05	11.5	1	11.9	0	0	0	0	0	0	0	0	0	0	0	0	0.0000	0.0000	0.0000	0.0000;
	13477	0.765	0	0	0	1.05	2.7	1	2.55	0	0	0	0	0	0	0	0	0	0	0	0	0.0000	0.0000	0.0000	0.0000;
	13479	1.02	0	0	0	1	3.4	1	3.4	0	0	0	0	0	0	0	0	0	0	0	0	0.0000	0.0000	0.0000	0.0000;
	14073	1.935	-2.4	-2.4	-2.4	1.04	7.611	1	6.45	0	0	0	0	0	0	0	0	0	0	0	0	0.0000	0.0000	0.0000	0.0000;
	14075	1	0	0	0	1	10	1	10	1	0	0	0	0	0	0	0	0	0	0	0	0.0000	0.0000	0.0000	0.0000;
	14471	1.2	0	0	0	1.04	4	1	4	0	0	0	0	0	0	0	0	0	0	0	0	0.0000	0.0000	0.0000	0.0000;
	14472	0.085	0	0	0	1	0.85	1	0.85	0	0	0	0	0	0	0	0	0	0	0	0	0.0000	0.0000	0.0000	0.0000;
	14604	4.8	0	0	0	1.05	7	0	4.8	0	0	0	0	0	0	0	0	0	0	0	0	0.0000	0.0000	0.0000	0.0000;
	14871	0.51	0	0	0	1.05	4.6	1	1.7	0	0	0	0	0	0	0	0	0	0	0	0	0.0000	0.0000	0.0000	0.0000;
	14902	450	0	279	-178	1.075	540	0	450	225	0	0	0	0	0	0	0	0	0	0	0	0.0000	0.0000	0.0000	0.0000;
	15171	13.8	-0.458	15.12	-15.12	1.05	46	1	46	0	0	0	0	0	0	0	0	0	0	0	0	0.0000	0.0000	0.0000	0.0000;
	15172	3	-3.29	3.29	-3.29	1	10	1	10	0	0	0	0	0	0	0	0	0	0	0	0	0.0000	0.0000	0.0000	0.0000;
	15173	0.765	-0.84	0.84	-0.84	1	2.55	1	2.55	0	0	0	0	0	0	0	0	0	0	0	0	0.0000	0.0000	0.0000	0.0000;
	15174	6	-6.57	6.57	-6.57	1	20	1	20	0	0	0	0	0	0	0	0	0	0	0	0	0.0000	0.0000	0.0000	0.0000;
	15571	1.785	-1.96	1.96	-1.96	1	5.95	1	5.95	0	0	0	0	0	0	0	0	0	0	0	0	0.0000	0.0000	0.0000	0.0000;
	15572	5.4	-3.431	5.92	-5.92	1	18.75	1	18	0	0	0	0	0	0	0	0	0	0	0	0	0.0000	0.0000	0.0000	0.0000;
	15573	6	0	0	0	1.04	23	1	20	0	0	0	0	0	0	0	0	0	0	0	0	0.0000	0.0000	0.0000	0.0000;
	15771	0.594	-0.3	-0.3	-0.3	1.04	1.98	1	1.98	0	0	0	0	0	0	0	0	0	0	0	0	0.0000	0.0000	0.0000	0.0000;
	15772	0.9	-1.92	-1.92	-1.92	1.04	3	1	3	0	0	0	0	0	0	0	0	0	0	0	0	0.0000	0.0000	0.0000	0.0000;
	16371	1.02	0	0	0	1	3.4	1	3.4	0	0	0	0	0	0	0	0	0	0	0	0	0.0000	0.0000	0.0000	0.0000;
	16372	1.02	0	0	0	1	3.4	1	3.4	0	0	0	0	0	0	0	0	0	0	0	0	0.0000	0.0000	0.0000	0.0000;
	16373	2.04	0	0	0	1	6.8	1	6.8	0	0	0	0	0	0	0	0	0	0	0	0	0.0000	0.0000	0.0000	0.0000;
	16374	2.295	0	0	0	1	7.65	1	7.65	0	0	0	0	0	0	0	0	0	0	0	0	0.0000	0.0000	0.0000	0.0000;
	16375	1.188	0	0	0	1	4.25	1	3.96	0	0	0	0	0	0	0	0	0	0	0	0	0.0000	0.0000	0.0000	0.0000;
	16376	1.485	0	0	0	1	5.1	1	4.95	0	0	0	0	0	0	0	0	0	0	0	0	0.0000	0.0000	0.0000	0.0000;
	16377	2.7	0	0	0	1	9.2	1	9	0	0	0	0	0	0	0	0	0	0	0	0	0.0000	0.0000	0.0000	0.0000;
	16378	0.48	0	0	0	1	1.7	1	1.6	0	0	0	0	0	0	0	0	0	0	0	0	0.0000	0.0000	0.0000	0.0000;
	16379	0.087	0	0	0	1	0.323	1	0.29	0	0	0	0	0	0	0	0	0	0	0	0	0.0000	0.0000	0.0000	0.0000;
	16571	11.34	0	0	0	1.05	40	1	37.8	0	0	0	0	0	0	0	0	0	0	0	0	0.0000	0.0000	0.0000	0.0000;
	16670	1.35	-1.296	0	-3.07	1	4.5	1	4.5	0	0	0	0	0	0	0	0	0	0	0	0	0.0000	0.0000	0.0000	0.0000;
	16671	1.02	0	0	0	1.04	3.4	1	3.4	0	0	0	0	0	0	0	0	0	0	0	0	0.0000	0.0000	0.0000	0.0000;
	16672	0.477	-0.56	-0.56	-0.56	1.04	1.7	1	1.59	0	0	0	0	0	0	0	0	0	0	0	0	0.0000	0.0000	0.0000	0.0000;
	16674	5.61	0	0	0	1.04	18.7	1	18.7	0	0	0	0	0	0	0	0	0	0	0	0	0.0000	0.0000	0.0000	0.0000;
	16675	2.4	-2.65	-2.65	-2.65	1.04	8	1	8	0	0	0	0	0	0	0	0	0	0	0	0	0.0000	0.0000	0.0000	0.0000;
	16677	1.02	0	0	0	1	3.4	1	3.4	0	0	0	0	0	0	0	0	0	0	0	0	0.0000	0.0000	0.0000	0.0000;
	16679	1.02	0	0	0	1	3.4	1	3.4	0	0	0	0	0	0	0	0	0	0	0	0	0.0000	0.0000	0.0000	0.0000;
	16873	8	0	7	-1	1.05	11.5	0	8	2	0	0	0	0	0	0	0	0	0	0	0	0.0000	0.0000	0.0000	0.0000;
	17073	22.5	0	23	-25	1.05	35.5	0	22.5	5	0	0	0	0	0	0	0	0	0	0	0	0.0000	0.0000	0.0000	0.0000;
	17074	22.5	0	23	-25	1.05	35.5	0	22.5	5	0	0	0	0	0	0	0	0	0	0	0	0.0000	0.0000	0.0000	0.0000;
	17075	0.594	-0.8	-0.8	-0.8	1	1.98	1	1.98	0	0	0	0	0	0	0	0	0	0	0	0	0.0000	0.0000	0.0000	0.0000;
	17077	0.006	0	0	0	1	1.2	1	0.02	0	0	0	0	0	0	0	0	0	0	0	0	0.0000	0.0000	0.0000	0.0000;
	17671	10	0	7	-3	1.05	12.5	0	10	3	0	0	0	0	0	0	0	0	0	0	0	0.0000	0.0000	0.0000	0.0000;
	17672	10	0	7	-3	1.05	12.5	0	10	3	0	0	0	0	0	0	0	0	0	0	0	0.0000	0.0000	0.0000	0.0000;
	18271	1.275	-1	-1	-1	1	4.25	1	4.25	0	0	0	0	0	0	0	0	0	0	0	0	0.0000	0.0000	0.0000	0.0000;
	18471	1.497	0	0	0	1.04	5.2	1	4.99	0	0	0	0	0	0	0	0	0	0	0	0	0.0000	0.0000	0.0000	0.0000;
	18472	0.75	-0.576	0	-0.82	1	2.978	1	2.5	0	0	0	0	0	0	0	0	0	0	0	0	0.0000	0.0000	0.0000	0.0000;
	18901	58	0	30	-21.32	1.075	68.235	0	58	20	0	0	0	0	0	0	0	0	0	0	0	0.0000	0.0000	0.0000	0.0000;
	19081	0.765	0	0	0	1.04	2.55	1	2.55	0	0	0	0	0	0	0	0	0	0	0	0	0.0000	0.0000	0.0000	0.0000;
	19082	0.51	0	0	0	1.05	1.7	1	1.7	0	0	0	0	0	0	0	0	0	0	0	0	0.0000	0.0000	0.0000	0.0000;
	19083	1.497	0	0	0	1.04	6.9	1	4.99	0	0	0	0	0	0	0	0	0	0	0	0	0.0000	0.0000	0.0000	0.0000;
	19084	1.35	-1.5	-1.5	-1.5	1.04	4.6	1	4.5	0	0	0	0	0	0	0	0	0	0	0	0	0.0000	0.0000	0.0000	0.0000;
	19085	6.3	-7	-7	-7	1.04	23.824	1	21	0	0	0	0	0	0	0	0	0	0	0	0	0.0000	0.0000	0.0000	0.0000;
	19101	98.4	0	51	-36.17	1.075	108.24	0	98.4	34	0	0	0	0	0	0	0	0	0	0	0	0.0000	0.0000	0.0000	0.0000;
	19317	0	0	6	-6	1.05	6	0	0	0	0	0	0	0	0	0	0	0	0	0	0	0.0000	0.0000	0.0000	0.0000;
	19371	7.125	0	0	0	1.05	29.78	1	23.75	0	0	0	0	0	0	0	0	0	0	0	0	0.0000	0.0000	0.0000	0.0000;
	19372	3.315	0	0	0	1.05	11.05	1	11.05	0	0	0	0	0	0	0	0	0	0	0	0	0.0000	0.0000	0.0000	0.0000;
	19471	130	55.853	94	-50	1.075	153	1	133.5	60	0	0	0	0	0	0	0	0	0	0	0	0.0000	0.0000	0.0000	0.0000;
	19472	58.274	0	38	-23	1.075	66.625	0	58.274	19.7	0	0	0	0	0	0	0	0	0	0	0	0.0000	0.0000	0.0000	0.0000;
	19473	58.274	0	40	-23	1.075	66.625	0	58.274	19.7	0	0	0	0	0	0	0	0	0	0	0	0.0000	0.0000	0.0000	0.0000;
	19601	0.585	0	0	0	1	6.5	1	5.85	0	0	0	0	0	0	0	0	0	0	0	0	0.0000	0.0000	0.0000	0.0000;
	19771	12.75	0	0	0	1.05	46.875	1	42.5	0	0	0	0	0	0	0	0	0	0	0	0	0.0000	0.0000	0.0000	0.0000;
	19772	2.55	-2.011	2.79	-2.79	1.05	8.5	1	8.5	0	0	0	0	0	0	0	0	0	0	0	0	0.0000	0.0000	0.0000	0.0000;
	19773	9	-7.111	9.86	-9.86	1.05	38.714	1	30	0	0	0	0	0	0	0	0	0	0	0	0	0.0000	0.0000	0.0000	0.0000;
	19971	6	-6.7	6.7	-6.7	1.05	20.7	1	20	0	0	0	0	0	0	0	0	0	0	0	0	0.0000	0.0000	0.0000	0.0000;
	19972	0.69	0	0	0	1.05	2.3	1	2.3	0	0	0	0	0	0	0	0	0	0	0	0	0.0000	0.0000	0.0000	0.0000;
	19973	0.69	0	0	0	1.05	2.3	1	2.3	0	0	0	0	0	0	0	0	0	0	0	0	0.0000	0.0000	0.0000	0.0000;
	19974	4.83	-4	4	-4	1.05	16.1	1	16.1	0	0	0	0	0	0	0	0	0	0	0	0	0.0000	0.0000	0.0000	0.0000;
	20101	35	0	21	-14	1.075	41.2	0	35	-38	0	0	0	0	0	0	0	0	0	0	0	0.0000	0.0000	0.0000	0.0000;
	21071	0.15	0	0	0	1.05	0.85	1	0.5	0	0	0	0	0	0	0	0	0	0	0	0	0.0000	0.0000	0.0000	0.0000;
	21371	8.55	-5.341	9.5	-9.5	1.05	31.73	1	28.5	0	0	0	0	0	0	0	0	0	0	0	0	0.0000	0.0000	0.0000	0.0000;
	21372	5.25	-3.261	5.8	-5.8	1.05	23.38	1	17.5	0	0	0	0	0	0	0	0	0	0	0	0	0.0000	0.0000	0.0000	0.0000;
	21871	0.51	0	0	0	1.01	1.7	1	1.7	0	0	0	0	0	0	0	0	0	0	0	0	0.0000	0.0000	0.0000	0.0000;
	21872	0.75	-0.99	-0.99	-1.28	1.01	2.7	1	2.5	0	0	0	0	0	0	0	0	0	0	0	0	0.0000	0.0000	0.0000	0.0000;
	21873	1.274	0	0	0	1	1.6	0	1.274	0	0	0	0	0	0	0	0	0	0	0	0	0.0000	0.0000	0.0000	0.0000;
	21875	3	0	0	0	1	3.78	0	3	0	0	0	0	0	0	0	0	0	0	0	0	0.0000	0.0000	0.0000	0.0000;
	22272	5.1	-3.9	0	-5.59	1	16	1	17	0	0	0	0	0	0	0	0	0	0	0	0	0.0000	0.0000	0.0000	0.0000;
	22273	1.35	-0.965	0	-1.48	1	4	1	4.5	0	0	0	0	0	0	0	0	0	0	0	0	0.0000	0.0000	0.0000	0.0000;
	22274	1.782	-2.4	-2.4	-2.4	1	5.94	1	5.94	0	0	0	0	0	0	0	0	0	0	0	0	0.0000	0.0000	0.0000	0.0000;
	22275	1.275	0	0	0	1	4.25	1	4.25	0	0	0	0	0	0	0	0	0	0	0	0	0.0000	0.0000	0.0000	0.0000;
	22276	1.785	0	0	0	1	6.68	1	5.95	0	0	0	0	0	0	0	0	0	0	0	0	0.0000	0.0000	0.0000	0.0000;
	22277	0.915	-0.99	0	-0.99	1	3.34	1	3.05	0	0	0	0	0	0	0	0	0	0	0	0	0.0000	0.0000	0.0000	0.0000;
	22278	1.386	-1	-1	-1	1	4.62	1	4.62	0	0	0	0	0	0	0	0	0	0	0	0	0.0000	0.0000	0.0000	0.0000;
	22292	6	0	0	0	1	6	0	6	0	0	0	0	0	0	0	0	0	0	0	0	0.0000	0.0000	0.0000	0.0000;
	22371	17.85	0	0	0	1.05	59.5	1	59.5	0	0	0	0	0	0	0	0	0	0	0	0	0.0000	0.0000	0.0000	0.0000;
	22471	0.765	0	0	0	1.04	2.55	1	2.55	0	0	0	0	0	0	0	0	0	0	0	0	0.0000	0.0000	0.0000	0.0000;
	22472	1.275	0	0	0	1.04	4.25	1	4.25	0	0	0	0	0	0	0	0	0	0	0	0	0.0000	0.0000	0.0000	0.0000;
	22473	1.275	-1.5	-1.5	-1.5	1.01	4.25	1	4.25	0	0	0	0	0	0	0	0	0	0	0	0	0.0000	0.0000	0.0000	0.0000;
	22671	52.1	0	32.6	-22.7	1.05	62	0	52.1	1.2	0	0	0	0	0	0	0	0	0	0	0	0.0000	0.0000	0.0000	0.0000;
	22672	52.1	0	32.6	-22.7	1.05	62	0	52.1	1.2	0	0	0	0	0	0	0	0	0	0	0	0.0000	0.0000	0.0000	0.0000;
	22673	14.56	0	10.92	-3.64	1.05	18.2	0	14.56	0	0	0	0	0	0	0	0	0	0	0	0	0.0000	0.0000	0.0000	0.0000;
	22871	0.72	-0.84	-0.84	-1.09	1.01	2.4	1	2.4	0	0	0	0	0	0	0	0	0	0	0	0	0.0000	0.0000	0.0000	0.0000;
	22872	12.24	0	0	0	1.05	45.423	1	40.8	0	0	0	0	0	0	0	0	0	0	0	0	0.0000	0.0000	0.0000	0.0000;
	23671	7.2	0	0	-7.89	1.05	25	1	24	0	0	0	0	0	0	0	0	0	0	0	0	0.0000	0.0000	0.0000	0.0000;
	25604	1.6	0	0	0	1	1.7	0	1.6	0	0	0	0	0	0	0	0	0	0	0	0	0.0000	0.0000	0.0000	0.0000;
	26771	7.8	-10	10	-10	1.05	26	1	26	0	0	0	0	0	0	0	0	0	0	0	0	0.0000	0.0000	0.0000	0.0000;
	26772	0.6	0	0	0	1.075	6	1	6	6	0	0	0	0	0	0	0	0	0	0	0	0.0000	0.0000	0.0000	0.0000;
	26773	6.6	-10	10	-10	1.05	22	1	22	0	0	0	0	0	0	0	0	0	0	0	0	0.0000	0.0000	0.0000	0.0000;
	26774	0.6	0	0	0	1.075	6	1	6	6	0	0	0	0	0	0	0	0	0	0	0	0.0000	0.0000	0.0000	0.0000;
	27071	0.24	0	0	0	1	0.8	1	0.8	0	0	0	0	0	0	0	0	0	0	0	0	0.0000	0.0000	0.0000	0.0000;
	27204	4	0	1	-1	1.04	5	0	4	0	0	0	0	0	0	0	0	0	0	0	0	0.0000	0.0000	0.0000	0.0000;
	27361	0	0	12.3	-12.3	1.05	12.3	0	0	0	0	0	0	0	0	0	0	0	0	0	0	0.0000	0.0000	0.0000	0.0000;
	27371	3.84	0	0	0	1.05	14.45	1	12.8	0	0	0	0	0	0	0	0	0	0	0	0	0.0000	0.0000	0.0000	0.0000;
	27372	5.1	0	0	0	1.05	18.75	1	17	0	0	0	0	0	0	0	0	0	0	0	0	0.0000	0.0000	0.0000	0.0000;
	27374	1.8	-1.97	-1.97	-1.97	1.05	6.25	1	6	0	0	0	0	0	0	0	0	0	0	0	0	0.0000	0.0000	0.0000	0.0000;
	27474	330	-22.665	285	-182	1.05	570.6	1	469.5	235	0	0	0	0	0	0	0	0	0	0	0	0.0000	0.0000	0.0000	0.0000;
	27771	12.368	-9.337	13	-13.61	1.05	41.4	1	41.225	0	0	0	0	0	0	0	0	0	0	0	0	0.0000	0.0000	0.0000	0.0000;
	27772	3	-2	-2	-2	1	11.912	1	10	0	0	0	0	0	0	0	0	0	0	0	0	0.0000	0.0000	0.0000	0.0000;
	27773	1.5	-1	-1	-1	1	4.6	1	5	0	0	0	0	0	0	0	0	0	0	0	0	0.0000	0.0000	0.0000	0.0000;
	27774	5.4	-3	-3	-3	1.05	18.4	1	18	0	0	0	0	0	0	0	0	0	0	0	0	0.0000	0.0000	0.0000	0.0000;
	27871	0.99	-0.7	-0.7	-0.7	1.04	3.3	1	3.3	0	0	0	0	0	0	0	0	0	0	0	0	0.0000	0.0000	0.0000	0.0000;
	28071	4.5	-6	-6	-6	1.05	15	1	15	0	0	0	0	0	0	0	0	0	0	0	0	0.0000	0.0000	0.0000	0.0000;
	28271	0.9	-1.2	-1.2	-1.2	1.04	3.34	1	3	0	0	0	0	0	0	0	0	0	0	0	0	0.0000	0.0000	0.0000	0.0000;
	28571	300	-40.991	282.1	-190	1.05	535.5	1	450.5	110.1	0	0	0	0	0	0	0	0	0	0	0	0.0000	0.0000	0.0000	0.0000;
	28871	1.8	-1.97	1.97	-1.97	1	6.68	1	6	0	0	0	0	0	0	0	0	0	0	0	0	0.0000	0.0000	0.0000	0.0000;
	28872	3.15	0	0	0	1	13.8	1	10.5	0	0	0	0	0	0	0	0	0	0	0	0	0.0000	0.0000	0.0000	0.0000;
	28873	4.95	-5.42	5.42	-5.42	1	18.4	1	16.5	0	0	0	0	0	0	0	0	0	0	0	0	0.0000	0.0000	0.0000	0.0000;
	28874	7.8	0	0	0	1	27.6	1	26	0	0	0	0	0	0	0	0	0	0	0	0	0.0000	0.0000	0.0000	0.0000;
	29671	100	-9.807	107	-53	1.075	150	1	123	40	0	0	0	0	0	0	0	0	0	0	0	0.0000	0.0000	0.0000	0.0000;
	29672	200	-18.852	181	-87	1.075	288	1	236.2	138	0	0	0	0	0	0	0	0	0	0	0	0.0000	0.0000	0.0000	0.0000;
	29673	300	8.541	255	-170	1.075	473	1	400	194	0	0	0	0	0	0	0	0	0	0	0	0.0000	0.0000	0.0000	0.0000;
	30671	15	0	13	-4	1.05	21.4	0	15	4	0	0	0	0	0	0	0	0	0	0	0	0.0000	0.0000	0.0000	0.0000;
	30671	4	0	3	-1	1.05	5.7	0	4	1	0	0	0	0	0	0	0	0	0	0	0	0.0000	0.0000	0.0000	0.0000;
	31071	0.765	0	0	0	1.01	2.55	1	2.55	0	0	0	0	0	0	0	0	0	0	0	0	0.0000	0.0000	0.0000	0.0000;
	31072	0.255	-0.28	-0.28	-0.36	1.01	0.85	1	0.85	0	0	0	0	0	0	0	0	0	0	0	0	0.0000	0.0000	0.0000	0.0000;
	31074	0.765	0	0	0	1.04	2.55	1	2.55	0	0	0	0	0	0	0	0	0	0	0	0	0.0000	0.0000	0.0000	0.0000;
	31271	300	188.692	295	-100	1.075	500	1	409.9	163	0	0	0	0	0	0	0	0	0	0	0	0.0000	0.0000	0.0000	0.0000;
	32171	8.925	-9.78	9.78	-9.78	1.05	36	1	29.75	0	0	0	0	0	0	0	0	0	0	0	0	0.0000	0.0000	0.0000	0.0000;
	32271	0.24	0	0	0	1.05	0.8	1	0.8	0	0	0	0	0	0	0	0	0	0	0	0	0.0000	0.0000	0.0000	0.0000;
	32404	4.26	0	1	-1	1.04	4.8	0	4.26	0	0	0	0	0	0	0	0	0	0	0	0	0.0000	0.0000	0.0000	0.0000;
	32570	13.305	-4.6	4.6	-4.6	1	46.875	1	44.35	0	0	0	0	0	0	0	0	0	0	0	0	0.0000	0.0000	0.0000	0.0000;
	32576	3.36	-3.852	0	-5.03	1	11.2	1	11.2	0	0	0	0	0	0	0	0	0	0	0	0	0.0000	0.0000	0.0000	0.0000;
	32577	1.08	-1.214	0	-5.03	1	3.6	1	3.6	0	0	0	0	0	0	0	0	0	0	0	0	0.0000	0.0000	0.0000	0.0000;
	32578	1.25	0	0	0	1	1.25	0	1.25	0	0	0	0	0	0	0	0	0	0	0	0	0.0000	0.0000	0.0000	0.0000;
	32604	7.5	0	1	-1	1.05	8.5	0	7.5	2	0	0	0	0	0	0	0	0	0	0	0	0.0000	0.0000	0.0000	0.0000;
	32604	0.18	0	0	0	1.05	0.2	0	0.18	0	0	0	0	0	0	0	0	0	0	0	0	0.0000	0.0000	0.0000	0.0000;
	33071	1.35	-1.48	0	-1.48	1	4	1	4.5	0	0	0	0	0	0	0	0	0	0	0	0	0.0000	0.0000	0.0000	0.0000;
	33072	2.805	0	0	0	1	9.35	1	9.35	0	0	0	0	0	0	0	0	0	0	0	0	0.0000	0.0000	0.0000	0.0000;
	33971	26.1	-17.113	28.6	-28.6	1.05	104.23	1	87	0	0	0	0	0	0	0	0	0	0	0	0	0.0000	0.0000	0.0000	0.0000;
	35071	1.38	-1.64	-1.64	-2.13	1.01	4.6	1	4.6	0	0	0	0	0	0	0	0	0	0	0	0	0.0000	0.0000	0.0000	0.0000;
	35074	100	-9.632	60	-39	1.05	121.1	1	103.3	70	0	0	0	0	0	0	0	0	0	0	0	0.0000	0.0000	0.0000	0.0000;
	35871	0.765	0	0	0	1.04	2.55	1	2.55	0	0	0	0	0	0	0	0	0	0	0	0	0.0000	0.0000	0.0000	0.0000;
	35872	0.735	0	0	0	1.04	2.55	1	2.45	0	0	0	0	0	0	0	0	0	0	0	0	0.0000	0.0000	0.0000	0.0000;
	35873	0.96	0	0	0	1.04	3.2	1	3.2	0	0	0	0	0	0	0	0	0	0	0	0	0.0000	0.0000	0.0000	0.0000;
	35875	4.5	-6	-6	-6	1.04	17.7	1	15	0	0	0	0	0	0	0	0	0	0	0	0	0.0000	0.0000	0.0000	0.0000;
	35876	3.564	-4.8	-4.8	-4.8	1.04	11.88	1	11.88	0	0	0	0	0	0	0	0	0	0	0	0	0.0000	0.0000	0.0000	0.0000;
	35877	1.497	0	0	0	1.04	5.4	1	4.99	0	0	0	0	0	0	0	0	0	0	0	0	0.0000	0.0000	0.0000	0.0000;
	36271	10.8	-7.605	12	-12	1.05	36	1	36	0	0	0	0	0	0	0	0	0	0	0	0	0.0000	0.0000	0.0000	0.0000;
	36272	1.9	-4.753	7.5	-75	1.05	20	1	19	0	0	0	0	0	0	0	0	0	0	0	0	0.0000	0.0000	0.0000	0.0000;
	36471	4.335	0	0	0	1.05	15	1	14.45	0	0	0	0	0	0	0	0	0	0	0	0	0.0000	0.0000	0.0000	0.0000;
	36472	1.2	-1.31	-1.31	-1.7	1.04	4.6	1	4	0	0	0	0	0	0	0	0	0	0	0	0	0.0000	0.0000	0.0000	0.0000;
	36473	1.38	0	0	0	1	4.6	1	4.6	0	0	0	0	0	0	0	0	0	0	0	0	0.0000	0.0000	0.0000	0.0000;
	36474	1.08	-1.18	-1.18	-1.53	1.04	4	1	3.6	0	0	0	0	0	0	0	0	0	0	0	0	0.0000	0.0000	0.0000	0.0000;
	36475	1.2	-1.2	-1.2	-1.2	1.04	4.6	1	4	0	0	0	0	0	0	0	0	0	0	0	0	0.0000	0.0000	0.0000	0.0000;
	36476	4.44	4	4	-4	1.04	17.868	1	14.8	0	0	0	0	0	0	0	0	0	0	0	0	0.0000	0.0000	0.0000	0.0000;
	38071	0.48	-0.56	-0.56	-0.56	1.01	1.6	1	1.6	0	0	0	0	0	0	0	0	0	0	0	0	0.0000	0.0000	0.0000	0.0000;
	38244	1	0	0	0	1	6.5	0	1	0	0	0	0	0	0	0	0	0	0	0	0	0.0000	0.0000	0.0000	0.0000;
	38271	3.15	0	0	0	1.04	11.69	1	10.5	0	0	0	0	0	0	0	0	0	0	0	0	0.0000	0.0000	0.0000	0.0000;
	38272	1.35	0	0	0	1.04	5.01	1	4.5	0	0	0	0	0	0	0	0	0	0	0	0	0.0000	0.0000	0.0000	0.0000;
...
];

%% branch data
%	fbus	tbus	r	x	b	rateA	rateB	rateC	ratio	angle	status	angmin	angmax
mpc.branch = [
	11	42404	0.0036	0.00391	0.00207	100	100	110	0	0	1	-360	360;
	12	25404	0.00534	0.00795	0.00407	9999	9999	10998.9	0	0	1	-360	360;
	12	25404	0.00594	0.00866	0.00435	9999	9999	10998.9	0	0	1	-360	360;
	12	46504	0.02132	0.02114	0.00329	9999	9999	10998.9	0	0	1	-360	360;
	12	46504	0.01937	0.01703	0.00256	9999	9999	10998.9	0	0	1	-360	360;
	1021	2121	0.0286	0.067	0.0059	105	105	115.5	0	0	1	-360	360;
	1021	2361	0.0513	0.1172	0.0106	105	105	115.5	0	0	1	-360	360;
	1021	3541	0.0071	0.037	0.0116	178	178	195.8	0	0	1	-360	360;
	1021	10210	0	0.0001	0	999	999	1098.9	0	0	1	-360	360;
	1021	10261	0	0.0001	0	105	105	115.5	0	0	1	-360	360;
	1041	5481	0.0049	0.0107	0.001	105	105	115.5	0	0	1	-360	360;
	1042	1052	0	0.0001	0	9999	9999	10998.9	0	0	0	-360	360;
	1042	1062	0	0.0001	0	593	593	652.3	0	0	1	-360	360;
	1042	1072	0.0001	0.0006	0.0384	593	593	652.3	0	0	1	-360	360;
	1042	3202	0.003	0.0222	0.0335	434	434	477.4	0	0	1	-360	360;
	1042	4722	0.0012	0.0078	0.2591	434	434	477.4	0	0	1	-360	360;
	1042	35771	0.0001	0.0004	0.0265	593	593	652.3	0	0	1	-360	360;
	1052	1062	0	0.0001	0	999	999	1098.9	0	0	0	-360	360;
	1052	2852	0.0002	0.0015	0.1035	593	593	652.3	0	0	1	-360	360;
	1052	3202	0.003	0.0222	0.0335	434	434	477.4	0	0	1	-360	360;
	1061	10619	0.0004	0.0008	0.0001	105	105	115.5	0	0	1	-360	360;
	1062	1072	0	0.0001	0	999	999	1098.9	0	0	0	-360	360;
	1071	2361	0.0594	0.1314	0.0123	105	105	115.5	0	0	1	-360	360;
	1071	3211	0.0094	0.0208	0.002	105	105	115.5	0	0	1	-360	360;
	1071	4941	0.0718	0.1589	0.0148	105	105	115.5	0	0	1	-360	360;
	1081	32810	0.0039	0.0123	0.0035	68	112	123.2	0	0	1	-360	360;
	1091	2861	0.0018	0.0038	0.0251	140	140	154	0	0	1	-360	360;
	1091	2861	0.0018	0.0038	0.0251	140	140	154	0	0	1	-360	360;
	1101	2161	0.0031	0.0069	0.0006	45	105	115.5	0	0	1	-360	360;
	1121	1301	0.0102	0.0787	0.0071	136	136	149.6	0	0	1	-360	360;
	1121	1541	0.0207	0.0952	0.0102	137	178	195.8	0	0	1	-360	360;
	1121	4901	0.0035	0.0077	0.0008	34	34	37.4	0	0	1	-360	360;
	1122	1742	0.0062	0.0462	0.0697	434	434	477.4	0	0	1	-360	360;
	1122	3642	0.0046	0.0338	0.051	434	434	477.4	0	0	1	-360	360;
	1131	1151	0	0.0001	0	178	178	195.8	0	0	1	-360	360;
	1131	2131	0.005	0.0105	0.0703	140	140	154	0	0	1	-360	360;
	1131	31911	0.0057	0.0293	0.0032	178	178	195.8	0	0	1	-360	360;
	1141	1911	0.0016	0.0034	0.0226	140	140	154	0	0	1	-360	360;
	1141	3501	0.054	0.123	0.0116	105	105	115.5	0	0	1	-360	360;
	1141	4941	0.0135	0.0696	0.0113	137	178	195.8	0	0	1	-360	360;
	1141	11461	0	0.0001	0	105	105	115.5	0	0	1	-360	360;
	1161	1781	0.001	0.002	0.0011	96	96	105.6	0	0	1	-360	360;
	1161	3461	0.0207	0.1067	0.0116	178	178	195.8	0	0	1	-360	360;
	1161	3901	0.0173	0.0894	0.0097	178	178	195.8	0	0	1	-360	360;
	1161	5051	0.0006	0.0012	0.0061	120	120	132	0	0	1	-360	360;
	1161	5071	0.0006	0.0012	0.0061	120	120	132	0	0	1	-360	360;
	1161	17810	0.001	0.0021	0.0012	96	96	105.6	0	0	1	-360	360;
	1181	1861	0.0644	0.1424	0.0133	105	105	115.5	0	0	1	-360	360;
	1181	2821	0.0193	0.0994	0.0108	178	178	195.8	0	0	1	-360	360;
	1181	4221	0.0381	0.1969	0.0214	120	120	132	0	0	1	-360	360;
	1181	4961	0.0292	0.0645	0.006	80	80	88	0	0	1	-360	360;
	1181	4961	0.0148	0.0763	0.0097	178	178	195.8	0	0	1	-360	360;
	1201	2561	0.0047	0.0101	0.0548	120	120	132	0	0	1	-360	360;
	1201	3781	0.0026	0.0055	0.0298	120	120	132	0	0	1	-360	360;
	1211	2771	0.0044	0.0228	0.0025	178	178	195.8	0	0	1	-360	360;
	1211	12111	0	0.0001	0	178	178	195.8	0	0	1	-360	360;
	1212	1602	0.0025	0.0158	0.025	761	761	837.1	0	0	1	-360	360;
	1212	3332	0.002	0.0124	0.0197	761	761	837.1	0	0	1	-360	360;
	1221	1901	0.0389	0.086	0.008	105	105	115.5	0	0	1	-360	360;
	1221	3551	0.0318	0.075	0.0072	105	105	115.5	0	0	1	-360	360;
	1231	1841	0.0111	0.03	0.1366	68	116	127.6	0	0	1	-360	360;
	1251	2361	0.0151	0.078	0.0085	178	178	195.8	0	0	1	-360	360;
	1251	52219	0.0124	0.0637	0.0069	178	178	195.8	0	0	1	-360	360;
	1271	2041	0.0106	0.0546	0.006	178	178	195.8	0	0	1	-360	360;
	1271	2181	0.0126	0.065	0.0071	178	178	195.8	0	0	1	-360	360;
	1281	2221	0.0426	0.0943	0.0098	68	105	115.5	0	0	1	-360	360;
	1301	17411	0.0148	0.1159	0.0104	136	136	149.6	0	0	1	-360	360;
	1311	3331	0.0052	0.0267	0.0029	178	178	195.8	0	0	1	-360	360;
	1321	13219	0.0006	0.0017	0.0002	136	136	149.6	0	0	1	-360	360;
	1341	1701	0.0533	0.1178	0.011	105	105	115.5	0	0	1	-360	360;
	1341	5191	0.023	0.0734	0.0075	136	136	149.6	0	0	1	-360	360;
	1351	4081	0.0121	0.0367	0.031	120	120	132	0	0	1	-360	360;
	1351	4201	0.0073	0.0214	0.0295	120	120	132	0	0	1	-360	360;
	1361	2001	0.0312	0.0751	0.0073	187	187	205.7	0	0	1	-360	360;
	1361	2161	0.0071	0.0368	0.004	178	178	195.8	0	0	1	-360	360;
	1381	1391	0	0.0001	0	136	136	149.6	0	0	0	-360	360;
	1381	4721	0.0027	0.0059	0.0006	63	63	69.3	0	0	1	-360	360;
	1391	4731	0.0021	0.0061	0.0007	105	105	115.5	0	0	1	-360	360;
	1400	14013	0	0.0001	0	999	999	1098.9	0	0	1	-360	360;
	1400	14015	0.0021	0.0108	0.0012	178	178	195.8	0	0	1	-360	360;
	1400	14016	0.0021	0.0108	0.0012	178	178	195.8	0	0	1	-360	360;
	1400	14017	0.0021	0.0108	0.0012	178	178	195.8	0	0	1	-360	360;
	1400	14018	0.0242	0.1251	0.0136	178	178	195.8	0	0	1	-360	360;
	1401	1661	0.0235	0.1215	0.0132	178	178	195.8	0	0	1	-360	360;
	1401	4041	0.042	0.0929	0.0087	99	99	108.9	0	0	1	-360	360;
	1401	14010	0	0.0001	0	999	999	1098.9	0	0	1	-360	360;
	1401	14061	0	0.001	0	105	105	115.5	0	0	1	-360	360;
	1404	2524	0.0024	0.0274	0.6208	1577	1577	1734.7	0	0	1	-360	360;
	1421	4511	0.002	0.0041	0.092	119	119	130.9	0	0	1	-360	360;
	1421	4651	0.003	0.006	0.1362	119	119	130.9	0	0	0	-360	360;
	1431	3261	0.0139	0.0715	0.0078	178	178	195.8	0	0	1	-360	360;
	1431	3551	0.0176	0.091	0.0099	178	178	195.8	0	0	1	-360	360;
	1441	1501	0.004	0.009	0.0009	68	105	115.5	0	0	1	-360	360;
	1441	2221	0.0402	0.089	0.0083	105	105	115.5	0	0	1	-360	360;
	1441	4731	0.0413	0.0914	0.0115	105	105	115.5	0	0	1	-360	360;
	1441	14461	0	0.0001	0	105	105	115.5	0	0	1	-360	360;
	1441	15010	0.0039	0.0086	0.0008	68	105	115.5	0	0	1	-360	360;
	1451	2581	0.0049	0.0156	0.0084	136	136	149.6	0	0	1	-360	360;
	1451	3761	0.0034	0.0109	0.0039	120	120	132	0	0	1	-360	360;
	1461	1721	0.0664	0.1525	0.0144	105	105	115.5	0	0	1	-360	360;
	1461	3201	0.0204	0.0656	0.0067	136	136	149.6	0	0	1	-360	360;
	1471	2761	0.0025	0.0053	0.0309	140	140	154	0	0	1	-360	360;
	1471	3421	0.0023	0.005	0.0291	140	140	154	0	0	1	-360	360;
	1472	2562	0.0006	0.0067	0.4653	593	593	652.3	0	0	1	-360	360;
	1481	2001	0.0073	0.0376	0.0041	178	178	195.8	0	0	1	-360	360;
	1481	3401	0.0017	0.0088	0.001	178	178	195.8	0	0	1	-360	360;
	1492	3522	0.0001	0.0006	0.0411	593	593	652.3	0	0	1	-360	360;
	1511	52610	0.0083	0.0426	0.0047	178	178	195.8	0	0	1	-360	360;
	1541	1841	0.0179	0.0811	0.0087	137	178	195.8	0	0	1	-360	360;
	1551	16011	0.008	0.0395	0.0394	178	178	195.8	0	0	1	-360	360;
	1571	5191	0.0544	0.1204	0.0112	105	105	115.5	0	0	1	-360	360;
	1581	4491	0.0024	0.0072	0.0053	80	80	88	0	0	1	-360	360;
	1581	5521	0.0025	0.0053	0.0286	120	120	132	0	0	1	-360	360;
	1601	1611	0.0188	0.0968	0.0105	178	178	195.8	0	0	1	-360	360;
	1601	2221	0.022	0.1137	0.0124	178	178	195.8	0	0	1	-360	360;
	1601	3881	0.0036	0.0184	0.002	178	178	195.8	0	0	1	-360	360;
	1601	16011	0	0.0001	0	178	178	195.8	0	0	0	-360	360;
	1602	3202	0.0062	0.0385	0.0612	548	761	837.1	0	0	1	-360	360;
	1611	3301	0.0128	0.066	0.0072	178	178	195.8	0	0	1	-360	360;
	1611	16110	0	0.001	0	999	999	1098.9	0	0	0	-360	360;
	1621	3061	0.0018	0.0089	0.001	178	178	195.8	0	0	1	-360	360;
	1621	3221	0.0094	0.0468	0.0054	178	178	195.8	0	0	1	-360	360;
	1631	2671	0.0046	0.0238	0.0026	91	178	195.8	0	0	1	-360	360;
	1631	5041	0.0197	0.0435	0.0041	105	105	115.5	0	0	1	-360	360;
	1631	10619	0.0143	0.0457	0.0047	136	136	149.6	0	0	1	-360	360;
	1641	1821	0.0144	0.0741	0.0081	161	161	177.1	0	0	1	-360	360;
	1641	2281	0.0809	0.1788	0.0167	105	105	115.5	0	0	1	-360	360;
	1641	2361	0.0336	0.1737	0.0189	120	120	132	0	0	1	-360	360;
	1641	2781	0.0214	0.0474	0.0044	105	105	115.5	0	0	1	-360	360;
	1641	2781	0.0176	0.0388	0.0036	105	105	115.5	0	0	1	-360	360;
	1641	2781	0.0176	0.0388	0.0036	105	105	115.5	0	0	1	-360	360;
	1641	4951	0.0331	0.0727	0.0672	105	105	115.5	0	0	1	-360	360;
	1641	16411	0	0.0001	0	105	105	115.5	0	0	1	-360	360;
	1641	16461	0	0.0001	0	105	105	115.5	0	0	1	-360	360;
	1641	16462	0	0.0001	0	999	999	1098.9	0	0	1	-360	360;
	1641	50019	0.0698	0.1544	0.0144	105	105	115.5	0	0	1	-360	360;
	1642	2522	0.0103	0.0763	0.1152	405	405	445.5	0	0	1	-360	360;
	1642	4522	0.0103	0.0767	0.1158	434	434	477.4	0	0	1	-360	360;
	1642	5172	0.0046	0.0289	0.0459	730	761	837.1	0	0	1	-360	360;
	1651	5261	0.014	0.031	0.0029	105	105	115.5	0	0	1	-360	360;
	1651	5281	0.0199	0.0445	0.0251	105	105	115.5	0	0	1	-360	360;
	1661	1821	0.0893	0.1978	0.0195	105	105	115.5	0	0	1	-360	360;
	1661	1951	0.0375	0.0825	0.0518	99	99	108.9	0	0	1	-360	360;
	1661	2281	0.0432	0.0955	0.0089	93	105	115.5	0	0	1	-360	360;
	1661	16661	0	0.0001	0	105	105	115.5	0	0	1	-360	360;
	1661	16662	0	0.01	0	9999	9999	10998.9	0	0	1	-360	360;
	1681	2011	0.00032	0.00016	0	190	190	209	0	0	1	-360	360;
	1681	3881	0.0016	0.0079	0.0009	137	178	195.8	0	0	1	-360	360;
	1681	32210	0.0202	0.1043	0.0113	178	178	195.8	0	0	1	-360	360;
	1691	5131	0.0029	0.0056	0.0725	100	100	110	0	0	1	-360	360;
	1691	51319	0.0018	0.0037	0.0247	100	100	110	0	0	1	-360	360;
	1701	1761	0.0058	0.0184	0.0019	68	136	149.6	0	0	1	-360	360;
	1701	1981	0.0385	0.1992	0.0216	178	178	195.8	0	0	1	-360	360;
	1701	5041	0.0649	0.1787	0.021	187	187	205.7	0	0	1	-360	360;
	1701	17010	0	0.0001	0	999	999	1098.9	0	0	1	-360	360;
	1701	17061	0	0.001	0	105	105	115.5	0	0	1	-360	360;
	1701	28712	0.0285	0.073	0.0067	187	187	205.7	0	0	1	-360	360;
	1711	3421	0.001	0.0021	0.0136	140	140	154	0	0	1	-360	360;
	1721	2161	0.0099	0.0511	0.0056	178	178	195.8	0	0	1	-360	360;
	1721	2391	0.0128	0.0659	0.0327	178	178	195.8	0	0	1	-360	360;
	1721	4911	0.00151	0.00547	0.03492	118	118	129.8	0	0	1	-360	360;
	1721	5381	0.0114	0.0589	0.0064	178	178	195.8	0	0	1	-360	360;
	1721	17261	0	0.0001	0	105	105	115.5	0	0	1	-360	360;
	1731	3421	0.001	0.0021	0.0136	140	140	154	0	0	1	-360	360;
	1741	1851	0.0038	0.0081	0.0295	105	105	115.5	0	0	1	-360	360;
	1741	4511	0.0013	0.0025	0.0566	119	119	130.9	0	0	1	-360	360;
	1741	17411	0	0.0001	0	178	178	195.8	0	0	0	-360	360;
	1741	51319	0.0002	0.0004	0.0001	136	136	149.6	0	0	1	-360	360;
	1742	2202	0.0049	0.0361	0.0544	434	434	477.4	0	0	1	-360	360;
	1742	3122	0.0004	0.0045	0.3148	593	593	652.3	0	0	1	-360	360;
	1742	17431	0	0.0001	0	434	434	477.4	0	0	0	-360	360;
	1742	17462	0	0.0001	0	434	434	477.4	0	0	1	-360	360;
	1791	4201	0.0097	0.031	0.0032	136	136	149.6	0	0	1	-360	360;
	1791	4481	0.03	0.0665	0.0062	105	105	115.5	0	0	1	-360	360;
	1801	4111	0.0136	0.045	0.0272	130	130	143	0	0	1	-360	360;
	1801	17411	0.0134	0.0417	0.0604	130	130	143	0	0	1	-360	360;
	1821	3501	0.0951	0.2216	0.021	99	99	108.9	0	0	1	-360	360;
	1831	2091	0.0271	0.0868	0.0089	136	136	149.6	0	0	1	-360	360;
	1841	3641	0.0051	0.026	0.0029	178	178	195.8	0	0	1	-360	360;
	1841	5501	0.0222	0.0711	0.0073	136	136	149.6	0	0	1	-360	360;
	1851	24819	0.0035	0.0076	0.0008	105	105	115.5	0	0	0	-360	360;
	1861	2521	0.0053	0.0117	0.0011	99	99	108.9	0	0	1	-360	360;
	1861	2521	0.0052	0.0114	0.0011	99	99	108.9	0	0	1	-360	360;
	1861	10619	0.0216	0.0691	0.0071	136	136	149.6	0	0	1	-360	360;
	1871	2581	0.0034	0.0127	0.0382	99	99	108.9	0	0	1	-360	360;
	1871	20411	0.0009	0.0043	0.0196	130	130	143	0	0	1	-360	360;
	1881	2881	0.0467	0.1032	0.0096	105	105	115.5	0	0	1	-360	360;
	1881	3281	0.0385	0.1231	0.0126	136	136	149.6	0	0	1	-360	360;
	1881	4021	0.0142	0.0731	0.008	178	178	195.8	0	0	1	-360	360;
	1891	2041	0.0232	0.1199	0.013	178	178	195.8	0	0	1	-360	360;
	1891	4501	0.0006	0.003	0.0004	178	178	195.8	0	0	1	-360	360;
	1901	3341	0.0084	0.0186	0.0018	105	105	115.5	0	0	1	-360	360;
	1901	3341	0.0082	0.0186	0.0017	105	105	115.5	0	0	1	-360	360;
	1901	50619	0.0274	0.0606	0.0057	68	105	115.5	0	0	1	-360	360;
	1921	1961	0.0245	0.0543	0.0182	105	105	115.5	0	0	1	-360	360;
	1921	4341	0.0035	0.0079	0.0008	31	105	115.5	0	0	1	-360	360;
	1921	4351	0.0033	0.0076	0.0007	31	105	115.5	0	0	1	-360	360;
	1921	4721	0.01	0.0236	0.0033	105	105	115.5	0	0	1	-360	360;
	1921	5481	0.0272	0.0615	0.0058	105	105	115.5	0	0	1	-360	360;
	1931	4371	0.0176	0.0907	0.0099	178	178	195.8	0	0	1	-360	360;
...
];

%%-----  DC Line Data  -----%%
%	fbus	tbus	status	Pf	Pt	Qf	Qt	Vf	Vt	Pmin	Pmax	QminF	QmaxF	QminT	QmaxT	loss0	loss1
mpc.dcline = [
	86221	86220	1	150	150	0	0	1	1.03004	127.5	172.5	36.0118139	140.677476	40.1923789	151.681808	0	0;
	86221	86220	1	150	150	0	0	1	1.03004	127.5	172.5	36.0118139	140.677476	40.1923789	151.681808	0	0;
];
